
     RDKit          3D

 80 84  0  0  0  0  0  0  0  0999 V2000
    2.5306   -2.1721    2.6493 C   0  0  0  0  0  0  0  0  0  0  0  0
    1.2722   -1.5996    2.0008 C   0  0  0  0  0  0  0  0  0  0  0  0
    0.1186   -1.5967    3.0008 C   0  0  0  0  0  0  0  0  0  0  0  0
    1.4989   -0.2293    1.6177 O   0  0  0  0  0  0  0  0  0  0  0  0
    1.9492   -0.1310    0.3203 C   0  0  0  0  0  0  0  0  0  0  0  0
    3.3132    0.0918    0.1300 C   0  0  0  0  0  0  0  0  0  0  0  0
    3.8569    0.1910   -1.1613 C   0  0  0  0  0  0  0  0  0  0  0  0
    5.3545    0.4216   -1.3270 C   0  0  0  0  0  0  0  0  0  0  0  0
    6.1804   -0.8004   -0.8722 C   0  0  0  0  0  0  0  0  0  0  0  0
    7.5398   -0.4131   -0.2775 C   0  0  0  0  0  0  0  0  0  0  0  0
    8.1188    0.7026   -1.0228 N   0  0  0  0  0  0  0  0  0  0  0  0
    9.5162    0.9280   -0.6660 C   0  0  0  0  0  0  0  0  0  0  0  0
    7.3313    1.9364   -0.8777 C   0  0  0  0  0  0  0  0  0  0  0  0
    5.8380    1.6939   -0.6168 C   0  0  0  0  0  0  0  0  0  0  0  0
    2.9842    0.0581   -2.2621 C   0  0  0  0  0  0  0  0  0  0  0  0
    3.4716    0.1304   -3.6854 C   0  0  0  0  0  0  0  0  0  0  0  0
    1.6001   -0.1266   -2.0429 C   0  0  0  0  0  0  0  0  0  0  0  0
    1.0528   -0.1870   -0.7590 C   0  0  0  0  0  0  0  0  0  0  0  0
   -0.3098   -0.3663   -0.4938 N   0  0  0  0  0  0  0  0  0  0  0  0
   -1.4414   -0.6088   -1.2684 C   0  0  0  0  0  0  0  0  0  0  0  0
   -2.5977   -0.5602   -0.5288 N   0  0  0  0  0  0  0  0  0  0  0  0
   -3.8197   -0.7927   -1.0907 C   0  0  0  0  0  0  0  0  0  0  0  0
   -5.0164   -0.7629   -0.3398 N   0  0  0  0  0  0  0  0  0  0  0  0
   -4.9991   -0.5831    1.0602 C   0  0  0  0  0  0  0  0  0  0  0  0
   -4.8854   -1.7263    1.8741 C   0  0  0  0  0  0  0  0  0  0  0  0
   -4.7525   -1.6210    3.2605 C   0  0  0  0  0  0  0  0  0  0  0  0
   -4.7141   -0.3681    3.8604 C   0  0  0  0  0  0  0  0  0  0  0  0
   -4.8188    0.7781    3.0749 C   0  0  0  0  0  0  0  0  0  0  0  0
   -4.9720    0.6778    1.6796 C   0  0  0  0  0  0  0  0  0  0  0  0
   -5.1639    2.2081    0.7731 S   0  0  0  0  0  6  0  0  0  0  0  0
   -4.5370    2.0992   -0.5305 O   0  0  0  0  0  0  0  0  0  0  0  0
   -4.7395    3.2788    1.6627 O   0  0  0  0  0  0  0  0  0  0  0  0
   -6.9286    2.4173    0.5244 C   0  0  0  0  0  0  0  0  0  0  0  0
   -7.6919    2.5176    1.8413 C   0  0  0  0  0  0  0  0  0  0  0  0
   -7.5402    1.3544   -0.3787 C   0  0  0  0  0  0  0  0  0  0  0  0
   -3.7235   -1.0896   -2.4440 C   0  0  0  0  0  0  0  0  0  0  0  0
   -4.7273   -1.3580   -3.3377 C   0  0  0  0  0  0  0  0  0  0  0  0
   -4.0789   -1.5477   -4.5283 N   0  0  0  0  0  0  0  0  0  0  0  0
   -2.7375   -1.4483   -4.4501 N   0  0  0  0  0  0  0  0  0  0  0  0
   -2.5137   -1.1401   -3.1685 C   0  0  0  0  0  0  0  0  0  0  0  0
   -1.3229   -0.9100   -2.5837 N   0  0  0  0  0  0  0  0  0  0  0  0
    2.3461   -3.1687    3.0622 H   0  0  0  0  0  0  0  0  0  0  0  0
    2.8977   -1.5180    3.4483 H   0  0  0  0  0  0  0  0  0  0  0  0
    3.3392   -2.2574    1.9158 H   0  0  0  0  0  0  0  0  0  0  0  0
    0.9819   -2.2249    1.1458 H   0  0  0  0  0  0  0  0  0  0  0  0
   -0.1293   -2.6131    3.3216 H   0  0  0  0  0  0  0  0  0  0  0  0
   -0.7765   -1.1420    2.5613 H   0  0  0  0  0  0  0  0  0  0  0  0
    0.3707   -1.0005    3.8861 H   0  0  0  0  0  0  0  0  0  0  0  0
    3.9509    0.1717    1.0061 H   0  0  0  0  0  0  0  0  0  0  0  0
    5.5770    0.5755   -2.3896 H   0  0  0  0  0  0  0  0  0  0  0  0
    5.6434   -1.4068   -0.1318 H   0  0  0  0  0  0  0  0  0  0  0  0
    6.3310   -1.4565   -1.7401 H   0  0  0  0  0  0  0  0  0  0  0  0
    8.1913   -1.2940   -0.3243 H   0  0  0  0  0  0  0  0  0  0  0  0
    7.4307   -0.1579    0.7846 H   0  0  0  0  0  0  0  0  0  0  0  0
    9.6353    1.1742    0.3956 H   0  0  0  0  0  0  0  0  0  0  0  0
    9.9402    1.7449   -1.2602 H   0  0  0  0  0  0  0  0  0  0  0  0
   10.1172    0.0369   -0.8805 H   0  0  0  0  0  0  0  0  0  0  0  0
    7.4432    2.5170   -1.8006 H   0  0  0  0  0  0  0  0  0  0  0  0
    7.7117    2.5635   -0.0609 H   0  0  0  0  0  0  0  0  0  0  0  0
    5.6806    1.6097    0.4663 H   0  0  0  0  0  0  0  0  0  0  0  0
    5.2608    2.5668   -0.9476 H   0  0  0  0  0  0  0  0  0  0  0  0
    4.2487   -0.6210   -3.8617 H   0  0  0  0  0  0  0  0  0  0  0  0
    3.8642    1.1297   -3.9001 H   0  0  0  0  0  0  0  0  0  0  0  0
    2.6654   -0.0671   -4.4005 H   0  0  0  0  0  0  0  0  0  0  0  0
    0.9458   -0.1976   -2.9083 H   0  0  0  0  0  0  0  0  0  0  0  0
   -0.5905   -0.1059    0.4436 H   0  0  0  0  0  0  0  0  0  0  0  0
   -5.5739   -1.5620   -0.6260 H   0  0  0  0  0  0  0  0  0  0  0  0
   -4.8652   -2.7162    1.4228 H   0  0  0  0  0  0  0  0  0  0  0  0
   -4.6531   -2.5177    3.8669 H   0  0  0  0  0  0  0  0  0  0  0  0
   -4.5913   -0.2808    4.9371 H   0  0  0  0  0  0  0  0  0  0  0  0
   -4.7776    1.7512    3.5622 H   0  0  0  0  0  0  0  0  0  0  0  0
   -7.0143    3.3827    0.0098 H   0  0  0  0  0  0  0  0  0  0  0  0
   -7.2820    3.3070    2.4787 H   0  0  0  0  0  0  0  0  0  0  0  0
   -7.6554    1.5800    2.4028 H   0  0  0  0  0  0  0  0  0  0  0  0
   -8.7454    2.7546    1.6575 H   0  0  0  0  0  0  0  0  0  0  0  0
   -6.9875    1.2580   -1.3182 H   0  0  0  0  0  0  0  0  0  0  0  0
   -8.5740    1.6158   -0.6295 H   0  0  0  0  0  0  0  0  0  0  0  0
   -7.5632    0.3753    0.1069 H   0  0  0  0  0  0  0  0  0  0  0  0
   -5.8033   -1.4048   -3.2611 H   0  0  0  0  0  0  0  0  0  0  0  0
   -4.4857   -1.7475   -5.4362 H   0  0  0  0  0  0  0  0  0  0  0  0
  1  2  1  0
  2  3  1  0
  2  4  1  0
  4  5  1  0
  5  6  2  0
  6  7  1  0
  7  8  1  0
  8  9  1  0
  9 10  1  0
 10 11  1  0
 11 12  1  0
 11 13  1  0
 13 14  1  0
  7 15  2  0
 15 16  1  0
 15 17  1  0
 17 18  2  0
 18 19  1  0
 19 20  1  0
 20 21  1  0
 21 22  2  0
 22 23  1  0
 23 24  1  0
 24 25  2  0
 25 26  1  0
 26 27  2  0
 27 28  1  0
 28 29  2  0
 29 30  1  0
 30 31  2  0
 30 32  2  0
 30 33  1  0
 33 34  1  0
 33 35  1  0
 22 36  1  0
 36 37  2  0
 37 38  1  0
 38 39  1  0
 39 40  2  0
 40 41  1  0
 18  5  1  0
 14  8  1  0
 41 20  2  0
 29 24  1  0
 40 36  1  0
  1 42  1  0
  1 43  1  0
  1 44  1  0
  2 45  1  0
  3 46  1  0
  3 47  1  0
  3 48  1  0
  6 49  1  0
  8 50  1  0
  9 51  1  0
  9 52  1  0
 10 53  1  0
 10 54  1  0
 12 55  1  0
 12 56  1  0
 12 57  1  0
 13 58  1  0
 13 59  1  0
 14 60  1  0
 14 61  1  0
 16 62  1  0
 16 63  1  0
 16 64  1  0
 17 65  1  0
 19 66  1  0
 23 67  1  0
 25 68  1  0
 26 69  1  0
 27 70  1  0
 28 71  1  0
 33 72  1  0
 34 73  1  0
 34 74  1  0
 34 75  1  0
 35 76  1  0
 35 77  1  0
 35 78  1  0
 37 79  1  0
 38 80  1  0
M  END
$$$$
