
     RDKit          3D

 40 41  0  0  0  0  0  0  0  0999 V2000
    2.1563    3.3078   -1.3366 C   0  0  0  0  0  0  0  0  0  0  0  0
    1.7731    1.9385   -1.2026 O   0  0  0  0  0  0  0  0  0  0  0  0
    1.6991    1.5150    0.0843 C   0  0  0  0  0  0  0  0  0  0  0  0
    1.9463    2.1809    1.0761 O   0  0  0  0  0  0  0  0  0  0  0  0
    1.2723    0.0972    0.1037 C   0  0  0  0  0  0  0  0  0  0  0  0
    1.9061   -0.8208    0.8725 C   0  0  0  0  0  0  0  0  0  0  0  0
    3.0939   -0.5243    1.7540 C   0  0  0  0  0  0  0  0  0  0  0  0
    1.4827   -2.1446    0.8589 N   0  0  0  0  0  0  0  0  0  0  0  0
    0.4514   -2.6376    0.0661 C   0  0  0  0  0  0  0  0  0  0  0  0
    0.2259   -4.1266    0.1316 C   0  0  0  0  0  0  0  0  0  0  0  0
   -0.2245   -1.7609   -0.7063 C   0  0  0  0  0  0  0  0  0  0  0  0
   -1.2664   -2.2184   -1.5889 N   0  0  0  0  0  4  0  0  0  0  0  0
   -2.1904   -2.8802   -1.1002 O   0  0  0  0  0  0  0  0  0  0  0  0
   -1.1664   -1.8968   -2.7800 O   0  0  0  0  0  1  0  0  0  0  0  0
    0.0822   -0.2856   -0.7744 C   0  0  1  0  0  0  0  0  0  0  0  0
   -1.1463    0.6197   -0.5437 C   0  0  0  0  0  0  0  0  0  0  0  0
   -1.5772    1.3751   -1.6611 C   0  0  0  0  0  0  0  0  0  0  0  0
   -2.6672    2.2400   -1.5876 C   0  0  0  0  0  0  0  0  0  0  0  0
   -3.3587    2.3756   -0.3948 C   0  0  0  0  0  0  0  0  0  0  0  0
   -2.9614    1.6413    0.7208 C   0  0  0  0  0  0  0  0  0  0  0  0
   -1.8629    0.7516    0.6759 C   0  0  0  0  0  0  0  0  0  0  0  0
   -1.5356    0.0014    1.9553 C   0  0  0  0  0  0  0  0  0  0  0  0
   -2.4353    0.2242    2.9584 F   0  0  0  0  0  0  0  0  0  0  0  0
   -1.5221   -1.3472    1.7897 F   0  0  0  0  0  0  0  0  0  0  0  0
   -0.3296    0.3405    2.4795 F   0  0  0  0  0  0  0  0  0  0  0  0
    3.1584    3.4673   -0.9265 H   0  0  0  0  0  0  0  0  0  0  0  0
    2.1753    3.5510   -2.4025 H   0  0  0  0  0  0  0  0  0  0  0  0
    1.4267    3.9598   -0.8459 H   0  0  0  0  0  0  0  0  0  0  0  0
    3.6463    0.3669    1.4447 H   0  0  0  0  0  0  0  0  0  0  0  0
    2.7688   -0.3961    2.7913 H   0  0  0  0  0  0  0  0  0  0  0  0
    3.8098   -1.3536    1.7210 H   0  0  0  0  0  0  0  0  0  0  0  0
    1.9647   -2.7999    1.4719 H   0  0  0  0  0  0  0  0  0  0  0  0
   -0.2684   -4.5275   -0.7574 H   0  0  0  0  0  0  0  0  0  0  0  0
   -0.3742   -4.3769    1.0122 H   0  0  0  0  0  0  0  0  0  0  0  0
    1.1837   -4.6534    0.2116 H   0  0  0  0  0  0  0  0  0  0  0  0
    0.4368   -0.1139   -1.8028 H   0  0  0  0  0  0  0  0  0  0  0  0
   -1.0597    1.2919   -2.6176 H   0  0  0  0  0  0  0  0  0  0  0  0
   -2.9752    2.8039   -2.4647 H   0  0  0  0  0  0  0  0  0  0  0  0
   -4.2105    3.0482   -0.3302 H   0  0  0  0  0  0  0  0  0  0  0  0
   -3.5278    1.7665    1.6445 H   0  0  0  0  0  0  0  0  0  0  0  0
  1  2  1  0
  2  3  1  0
  3  4  2  0
  3  5  1  0
  5  6  2  0
  6  7  1  0
  6  8  1  0
  8  9  1  0
  9 10  1  0
  9 11  2  0
 11 12  1  0
 12 13  2  0
 12 14  1  0
 11 15  1  0
 15 16  1  0
 16 17  2  0
 17 18  1  0
 18 19  2  0
 19 20  1  0
 20 21  2  0
 21 22  1  0
 22 23  1  0
 22 24  1  0
 22 25  1  0
 15  5  1  0
 21 16  1  0
  1 26  1  0
  1 27  1  0
  1 28  1  0
  7 29  1  0
  7 30  1  0
  7 31  1  0
  8 32  1  0
 10 33  1  0
 10 34  1  0
 10 35  1  0
 15 36  1  6
 17 37  1  0
 18 38  1  0
 19 39  1  0
 20 40  1  0
M  CHG  2  12   1  14  -1
M  END
$$$$
